Version 4
SHEET 1 880 724
WIRE 144 -48 16 -48
WIRE -672 -32 -768 -32
WIRE -656 -32 -656 -80
WIRE -656 -32 -672 -32
WIRE 144 -16 144 -48
WIRE -768 0 -768 -32
WIRE -64 32 -128 32
WIRE 64 32 -64 32
WIRE 320 32 160 32
WIRE 512 32 320 32
WIRE -672 96 -672 -32
WIRE -528 96 -672 96
WIRE -128 96 -128 32
WIRE -672 112 -672 96
WIRE -912 128 -976 128
WIRE -688 128 -912 128
WIRE -480 144 -624 144
WIRE 512 144 512 32
WIRE 608 144 512 144
WIRE -976 160 -976 128
WIRE -768 160 -768 80
WIRE -688 160 -768 160
WIRE -768 176 -768 160
WIRE -672 192 -672 176
WIRE -656 192 -672 192
WIRE -640 208 -640 176
WIRE -528 208 -528 96
WIRE -528 208 -640 208
WIRE 512 208 512 144
WIRE 608 208 608 144
WIRE -128 224 -128 176
WIRE -976 272 -976 240
WIRE 144 272 32 272
WIRE -768 304 -768 256
WIRE -656 304 -656 192
WIRE -656 304 -768 304
WIRE 144 320 144 272
WIRE 512 320 512 272
WIRE 608 320 608 288
WIRE 608 320 512 320
WIRE -656 352 -656 304
WIRE 512 352 512 320
WIRE -48 368 -128 368
WIRE 64 368 -48 368
WIRE 272 368 160 368
WIRE -128 448 -128 368
WIRE -128 560 -128 528
FLAG -128 224 0
FLAG -976 272 0
FLAG -912 128 cmd
FLAG -64 32 Vbatt
FLAG 320 32 Vmicro
FLAG -128 560 0
FLAG 512 352 0
FLAG -48 368 V5V
FLAG 16 -48 cmd
FLAG 32 272 cmd_inv
FLAG -656 352 0
FLAG -656 -80 V5V
FLAG -480 144 cmd_inv
SYMBOL pmos 64 -16 M90
SYMATTR InstName M1
SYMATTR Value IRF7210
SYMBOL voltage -128 80 R0
WINDOW 123 0 0 Left 2
WINDOW 39 0 0 Left 2
SYMATTR InstName V1
SYMATTR Value 5
SYMBOL voltage -976 144 R0
WINDOW 3 -300 51 Left 2
WINDOW 123 0 0 Left 2
WINDOW 39 0 0 Left 2
SYMATTR InstName V2
SYMATTR Value PULSE(0 5 0 0 0 1 2 5)
SYMBOL pmos 64 320 M90
SYMATTR InstName M2
SYMATTR Value IRF7210
SYMBOL voltage -128 432 R0
WINDOW 123 0 0 Left 2
WINDOW 39 0 0 Left 2
SYMATTR InstName V3
SYMATTR Value 5
SYMBOL cap 496 208 R0
SYMATTR InstName C1
SYMATTR Value 1µ
SYMBOL res 592 192 R0
SYMATTR InstName R1
SYMATTR Value 250
SYMBOL res -784 -16 R0
SYMATTR InstName R2
SYMATTR Value 10k
SYMBOL res -784 160 R0
SYMATTR InstName R3
SYMATTR Value 10k
SYMBOL Opamps\\LT1218 -656 144 R0
SYMATTR InstName U1
TEXT -1218 520 Left 2 !.tran 5
